[TITLE]
Scenario: Average Day 
Date: 8/16/2016 4:09:48 PM 

[JUNCTIONS]
;ID              	Elev        	Demand      	Pattern         
 51956           	133.883544921875	0.20385     	296111          	;
 51961           	132         	0.29728125  	296111          	;
 52038           	124         	1.62230625  	296111          	;
 52080           	98.8924179077148	1.72423125  	296111          	;
 52086           	99.3479919433594	0.517175    	296111          	;
 52087           	95.4824905395508	0           	                	;
 52108           	137.561645507813	1.287275    	296111          	;
 52157           	81.4721527099609	0           	                	;
 52160           	80.1851425170898	0           	                	;
 52166           	83.7466583251953	0.1755375   	296111          	;
 52174           	83.9294967651367	1.29954375  	296111          	;
 52179           	139.82389831543	0           	                	;
 52188           	140         	0.48603125  	296111          	;
 52189           	103.346611022949	0           	                	;
 52197           	145.69140625	0.42185625  	296111          	;
 52198           	144.842468261719	0.5643625   	296111          	;
 52222           	148.082305908203	0.33880625  	296111          	;
 52254           	127.042060852051	0           	                	;
 52258           	126.072807312012	0           	                	;
 52261           	128         	0           	                	;
 52262           	128.828109741211	0           	                	;
 52264           	128.582809448242	0           	                	;
 52307           	148.665756225586	0.1264625   	296111          	;
 52344           	140         	0.2416      	296111          	;
 52350           	140         	0.68610625  	296111          	;
 52359           	135.605270385742	0.13873125  	296111          	;
 52360           	134.802444458008	0           	                	;
 52392           	137.376007080078	0           	                	;
 52407           	104         	0.88429375  	296111          	;
 52413           	100.231727600098	0.62193125  	296111          	;
 52417           	140.594512939453	0           	                	;
 52418           	140.804977416992	0           	                	;
 52423           	100         	1.45620625  	296111          	;
 52438           	99.9866180419922	2.05076875  	296111          	;
 52439           	72.0977630615234	1.8101125   	296111          	;
 52451           	72.4686126708984	0.06795     	296111          	;
 52460           	101.029708862305	0.6360875   	296111          	;
 52472           	109.222610473633	1.3231375   	296111          	;
 52484           	86.6835174560547	0           	                	;
 52501           	87.7237319946289	1.1759125   	296111          	;
 52509           	60          	0.83521875  	296111          	;
 52512           	60          	0.08776875  	296111          	;
 52528           	112         	1.48074375  	296111          	;
 52534           	75.8693695068359	0.2359375   	296111          	;
 52560           	94          	0.08776875  	296111          	;
 52575           	95.2728881835938	1.2665125   	296111          	;
 52578           	64.5958786010742	0           	                	;
 52581           	94          	2.16779375  	296111          	;
 52589           	67.224967956543	0           	                	;
 52603           	67.0571212768555	0.0849375   	296111          	;
 52605           	64.5906372070313	0.47565     	296111          	;
 52622           	144.782592773438	0.2434875   	296111          	;
 52628           	98.59521484375	1.77141875  	296111          	;
 52642           	134         	0.48036875  	296111          	;
 52655           	76.1194610595703	0.3907125   	296111          	;
 52660           	89.5002822875977	0.62665     	296111          	;
 52685           	91.3850326538086	0.46055     	296111          	;
 52702           	94          	0.23121875  	296111          	;
 52704           	127.824333190918	0.411475    	296111          	;
 52709           	78.980110168457	0.3001125   	296111          	;
 52712           	115.903121948242	0.24820625  	296111          	;
 52718           	111.391998291016	0.79369375  	296111          	;
 52721           	142.165771484375	0.1057      	296111          	;
 52723           	146.652465820313	0.24820625  	296111          	;
 52727           	95.8826904296875	0           	                	;
 52728           	110         	0.12551875  	296111          	;
 52732           	147.41520690918	0           	                	;
 52752           	96          	1.40901875  	296111          	;
 52753           	99.0338745117188	0.5285      	296111          	;
 52760           	100         	1.1929      	296111          	;
 52761           	95.6615219116211	1.20894375  	296111          	;
 52778           	106.681816101074	0.3718375   	296111          	;
 52808           	85.8607177734375	0           	                	;
 52818           	85.2039794921875	0.5907875   	296111          	;
 52830           	117.157135009766	0.08021875  	296111          	;
 52833           	122         	0.65213125  	296111          	;
 52839           	100.444786071777	0.2718      	296111          	;
 52857           	110.968002319336	0.2585875   	296111          	;
 52860           	73.955451965332	0.46338125  	296111          	;
 52861           	113.290313720703	0.54454375  	296111          	;
 52876           	72.8155364990234	0.15005625  	296111          	;
 52894           	75.3796539306641	1.1627      	296111          	;
 52895           	88.0385131835938	0.4832      	296111          	;
 52896           	77.8730316162109	0.08305     	296111          	;
 52904           	70.9069595336914	0.92393125  	296111          	;
 52909           	21.0010528564453	0           	                	;
 52920           	22          	0           	                	;
 52982           	109.938484191895	0.9607375   	296111          	;
 52983           	71.7283935546875	0.92581875  	296111          	;
 52984           	70.757698059082	0.50113125  	296111          	;
 53006           	69.8254165649414	0.1679875   	296111          	;
 53008           	71.3988494873047	0.1189125   	296111          	;
 53015           	70          	0.06134375  	296111          	;
 53021           	70.3321990966797	0.59645     	296111          	;
 53030           	98.1116638183594	1.4930125   	296111          	;
 53067           	57.080810546875	0.6058875   	296111          	;
 53074           	87.101203918457	0.75216875  	296111          	;
 53085           	55.716251373291	1.19573125  	296111          	;
 53105           	84.891242980957	0.13684375  	296111          	;
 53110           	98          	0           	                	;
 53112           	98          	0.61815625  	296111          	;
 53234           	111.695579528809	0.95413125  	296111          	;
 53277           	100.344192504883	0.2718      	296111          	;
 53282           	100         	0           	                	;
 53297           	68.8619384765625	0.351075    	296111          	;
 53306           	84.8123321533203	0.4548875   	296111          	;
 53310           	114.623107910156	1.27311875  	296111          	;
 53320           	114.819549560547	1.6100375   	296111          	;
 53356           	115.503311157227	0.72196875  	296111          	;
 53380           	109.530471801758	0.22178125  	296111          	;
 53385           	109.318168640137	0.7304625   	296111          	;
 53395           	108         	0.55115     	296111          	;
 53397           	81.5973052978516	0.4209125   	296111          	;
 53402           	81.2914123535156	0           	                	;
 53426           	95.9033432006836	0.43695625  	296111          	;
 53509           	76.5573425292969	0           	                	;
 53535           	66.2279891967773	0.222725    	296111          	;
 53565           	59.4547424316406	0.60116875  	296111          	;
 53630           	79.2387771606445	0.51434375  	296111          	;
 53649           	114.705276489258	0.585125    	296111          	;
 53650           	83.9213790893555	0.27085625  	296111          	;
 53651           	78.2265930175781	0.7115875   	296111          	;
 53655           	115.679344177246	0           	                	;
 53717           	81.9964218139648	1.208       	296111          	;
 53722           	81.3986358642578	0.13684375  	296111          	;
 111671          	137.14128112793	0.3227625   	296111          	;
 111679          	126.010368347168	0.094375    	296111          	;
 111686          	132.614120483398	0.35390625  	296111          	;
 111754          	103.875015258789	2.0215125   	296111          	;
 111804          	97.6897201538086	0           	                	;
 111828          	138.095947265625	0.8021875   	296111          	;
 111877          	81.8023986816406	0           	                	;
 111879          	78.4071350097656	0           	                	;
 111884          	81.0319061279297	0.08305     	296111          	;
 111890          	83.3849487304688	0           	                	;
 111909          	139.224960327148	0.2170625   	296111          	;
 111915          	144.264007568359	0.3605125   	296111          	;
 111924          	146         	1.800675    	296111          	;
 111925          	131.490707397461	0.6360875   	296111          	;
 111938          	148.623687744141	1.302375    	296111          	;
 111970          	126.305114746094	0           	                	;
 111973          	132         	0.27935     	296111          	;
 111974          	128.006805419922	0           	                	;
 111976          	128.928756713867	0.47093125  	296111          	;
 111978          	124.443016052246	0           	                	;
 111988          	75.4744338989258	3.22101875  	296111          	;
 111999          	120.158821105957	0           	                	;
 112008          	150.145950317383	1.7195125   	296111          	;
 112022          	149.244171142578	0.27085625  	296111          	;
 112029          	147.853515625	2.0083      	296111          	;
 112064          	140         	0.48980625  	296111          	;
 112079          	135.323837280273	0           	                	;
 112105          	137.566665649414	0.1717625   	296111          	;
 112110          	136.44270324707	0           	                	;
 112111          	103.874694824219	0.56908125  	296111          	;
 112122          	83.9478378295898	2.72271875  	296111          	;
 112127          	99.6871948242188	0.65685     	296111          	;
 112131          	140.95280456543	0.25009375  	296111          	;
 112133          	141.14533996582	0.23499375  	296111          	;
 112151          	74          	0.8399375   	296111          	;
 112162          	100.028381347656	0           	                	;
 112164          	72          	0.17081875  	296111          	;
 112169          	146.62451171875	0           	                	;
 112184          	83.8856048583984	0           	                	;
 112189          	141.867721557617	0.95790625  	296111          	;
 112195          	109.047637939453	0.2548125   	296111          	;
 112209          	88.4320526123047	0           	                	;
 112221          	62          	0.9796125   	296111          	;
 112227          	60          	0.0698375   	296111          	;
 112250          	112         	0.44450625  	296111          	;
 112251          	76          	0.70120625  	296111          	;
 112258          	86          	1.62325     	296111          	;
 112273          	62.369556427002	0.38788125  	296111          	;
 112285          	94          	0.1038125   	296111          	;
 112300          	149.860046386719	0.7115875   	296111          	;
 112307          	66          	0           	                	;
 112325          	58          	0.54831875  	296111          	;
 112327          	145.791534423828	0.81823125  	296111          	;
 112338          	145.941009521484	0.9362      	296111          	;
 112340          	144.747100830078	1.10701875  	296111          	;
 112354          	134         	0.65213125  	296111          	;
 112364          	139.784240722656	0.76349375  	296111          	;
 112368          	75.8696441650391	0.1755375   	296111          	;
 112379          	90.8147888183594	0.124575    	296111          	;
 112382          	87.4590911865234	1.94129375  	296111          	;
 112395          	132.545608520508	0.5587      	296111          	;
 112400          	90.9029769897461	0           	                	;
 112412          	94          	0.76255     	296111          	;
 112415          	130         	1.211775    	296111          	;
 112422          	79.9432830810547	0.2283875   	296111          	;
 112424          	126.994827270508	0.48603125  	296111          	;
 112427          	73.15234375 	0           	                	;
 112431          	73.5181884765625	1.33351875  	296111          	;
 112432          	67.7259750366211	0.31049375  	296111          	;
 112435          	115.248947143555	0.1963      	296111          	;
 112438          	145.096969604492	0.08021875  	296111          	;
 112445          	95.9132995605469	0.73140625  	296111          	;
 112447          	111.145141601563	0.3491875   	296111          	;
 112457          	151.392196655273	0.11608125  	296111          	;
 112469          	98          	0.27463125  	296111          	;
 112473          	94.9607086181641	0.1604375   	296111          	;
 112510          	105.346771240234	0.49075     	296111          	;
 112528          	86.3470306396484	0.2869      	296111          	;
 112550          	117.272819519043	0.7266875   	296111          	;
 112553          	122         	0.95224375  	296111          	;
 112558          	117.600738525391	0.351075    	296111          	;
 112559          	122         	0.5454875   	296111          	;
 112565          	70          	0.71064375  	296111          	;
 112570          	100.725250244141	0.18403125  	296111          	;
 112576          	113.234230041504	0.169875    	296111          	;
 112588          	75.0999298095703	0.91638125  	296111          	;
 112613          	61.1343727111816	0.76160625  	296111          	;
 112615          	89.2484741210938	0.77670625  	296111          	;
 112617          	75.3046264648438	0.25575625  	296111          	;
 112637          	22          	0           	                	;
 112641          	22          	0           	                	;
 112642          	22          	0           	                	;
 112661          	82.4758453369141	1.13533125  	296111          	;
 112665          	125.0830078125	1.6138125   	296111          	;
 112680          	74          	0.57474375  	296111          	;
 112695          	63.4109573364258	0.592675    	296111          	;
 112697          	108.964836120605	0.58135     	296111          	;
 112703          	71.0108184814453	0.9154375   	296111          	;
 112724          	70          	0.237825    	296111          	;
 112725          	70          	0.61815625  	296111          	;
 112732          	69.8069305419922	0.39543125  	296111          	;
 112736          	97.285400390625	0.4020375   	296111          	;
 112747          	77.0897369384766	1.25801875  	296111          	;
 112779          	46.4112892150879	0.64080625  	296111          	;
 112783          	87.3748779296875	0.064175    	296111          	;
 112796          	56.5604095458984	0.64646875  	296111          	;
 112814          	84.5066452026367	0.58040625  	296111          	;
 112817          	98          	0.38221875  	296111          	;
 112830          	89.199592590332	0.91449375  	296111          	;
 112852          	90          	1.1796875   	296111          	;
 112925          	111.11572265625	0.80313125  	296111          	;
 112963          	106.937889099121	0.917325    	296111          	;
 112980          	100.078987121582	0.65401875  	296111          	;
 112983          	68.8174743652344	1.0419      	296111          	;
 112988          	84.2920227050781	0.5605875   	296111          	;
 113014          	115.39232635498	0.13118125  	296111          	;
 113031          	72          	0.58229375  	296111          	;
 113062          	116.065185546875	0.39920625  	296111          	;
 113085          	109.202339172363	0           	                	;
 113102          	81.0553207397461	0.3624      	296111          	;
 113115          	96.0757064819336	0.92959375  	296111          	;
 113141          	97.6384963989258	0.6511875   	296111          	;
 113205          	77.1204452514648	0.70498125  	296111          	;
 113213          	77.0732574462891	0.1057      	296111          	;
 113235          	66.7012100219727	1.1325      	296111          	;
 113256          	91.6776123046875	1.0872      	296111          	;
 113276          	30.0906105041504	0.88335     	296111          	;
 113349          	78.3012313842773	0           	                	;
 113361          	113.896598815918	0.49358125  	296111          	;
 113363          	126.566329956055	0.24254375  	296111          	;
 113433          	81.3416137695313	0.033975    	296111          	;
 113454          	86.25390625 	0.7097      	296111          	;
 113487          	82.9290161132813	0.52095     	296111          	;
 125982          	121.647766113281	0           	                	;
 125988          	74          	0.23310625  	296111          	;
 125990          	59.7930450439453	1.78463125  	296111          	;
 125992          	139.745315551758	0.94375     	296111          	;
 125994          	58.8772163391113	0.622875    	296111          	;
 125998          	71.7960586547852	0.19346875  	296111          	;
 126011          	72.8242111206055	0.517175    	296111          	;
 126016          	41.5528526306152	1.921475    	296111          	;
 126024          	86.5845489501953	0.39354375  	296111          	;
 136023          	85.7193222045898	0           	                	;
 136028          	141.847961425781	0.66156875  	296111          	;
 136051          	132.293914794922	0.1528875   	296111          	;
 136079          	76          	0.3265375   	296111          	;
 136083          	93.8372192382813	0.343525    	296111          	;
 136090          	70.4903182983398	0.32559375  	296111          	;
 136101          	99.7986831665039	2.0819125   	296111          	;
 136103          	69.027458190918	0.65401875  	296111          	;
 136121          	96.239875793457	0.97300625  	296111          	;
 136122          	137.12174987793	0.79275     	296111          	;
 136124          	73.6874771118164	0.42940625  	296111          	;
 136138          	118         	1.28444375  	296111          	;
 136141          	108.229110717773	0.19535625  	296111          	;
 136178          	78.2739791870117	0.98999375  	296111          	;
 136188          	98          	0.396375    	296111          	;
 136196          	121.846343994141	1.86013125  	296111          	;
 136233          	109.322914123535	0.75028125  	296111          	;
 136254          	58.4878997802734	0           	                	;
 297542          	127.158735  	0           	                	;
 297543          	127.852985  	0           	                	;
 297549          	126.397976  	0           	                	;
 297550          	127.504788  	0           	                	;
 299166          	127.628122  	0           	                	;
 299481          	126.213723  	0           	                	;
 303220          	126.772322  	0           	                	;
 303421          	127.026545  	0           	                	;
 303665          	126.544169  	0           	                	;
 304413          	127.26934   	0           	                	;
 140785-A        	120.569999694824	0           	                	;
 140785-B        	120.569999694824	0           	                	;
 294718-A        	120.569999694824	0           	                	;
 294718-B        	120.569999694824	0           	                	;

[RESERVOIRS]
;ID              	Head        	Pattern         
 329219          	317         	                	;

[TANKS]
;ID              	Elevation   	InitLevel   	MinLevel    	MaxLevel    	Diameter    	MinVol      	VolCurve

[PIPES]
;ID              	Node1           	Node2           	Length      	Diameter    	Roughness   	MinorLoss   	Status
 143444          	52262           	111976          	2.96101349750094	6           	125         	0           	Open  	;
 143912          	52261           	111974          	3.17651051833951	10          	125         	0           	Open  	;
 144721          	111970          	52258           	3.07422333338237	10          	125         	0           	Open  	;
 145008          	52157           	111877          	6.51523266571133	6           	110         	0           	Open  	;
 145028          	112703          	52984           	16.1651266694135	3           	75          	0           	Open  	;
 145354          	112637          	52920           	9.7146253890592	4           	110         	0           	Open  	;
 147226          	112131          	112133          	9.88357676313648	16          	120         	0           	Open  	;
 148233          	112340          	52622           	13.386590351207	3           	110         	0           	Open  	;
 149291          	53402           	113102          	12.8744469378348	3           	110         	0           	Open  	;
 150009          	112431          	112427          	10.2992629508003	8           	110         	0           	Open  	;
 150219          	52222           	111938          	3.55965052326914	8           	110         	0           	Open  	;
 150964          	52264           	52262           	2.05857265291782	6           	125         	0           	Open  	;
 152494          	52258           	299481          	9.15775810056451	10          	125         	0           	Open  	;
 152943          	112445          	52727           	4.30757866018465	16          	120         	0           	Open  	;
 153988          	112105          	52392           	4.66533951683431	8           	125         	0           	Open  	;
 157992          	53397           	53402           	2.77402938595153	3           	110         	0           	Open  	;
 158333          	112642          	112637          	16.7675319908267	4           	110         	0           	Open  	;
 159184          	52418           	112133          	3.21513538280035	14          	130         	0           	Open  	;
 159877          	52920           	112641          	17.3454431303636	4           	110         	0           	Open  	;
 160015          	52732           	112457          	25.303732601822	6           	110         	0           	Open  	;
 161931          	113205          	53509           	7.27716068786988	6           	110         	0           	Open  	;
 162016          	52254           	297542          	6.15265476922294	14          	130         	0           	Closed	;
 162162          	112131          	52417           	3.47899853670464	8           	125         	0           	Open  	;
 162650          	297543          	52254           	6.26625279813947	14          	130         	0           	Open  	;
 164474          	111978          	303665          	8.05873283081976	10          	125         	0           	Open  	;
 166868          	112079          	52360           	3.08426290599612	8           	125         	0           	Open  	;
 167181          	112796          	53085           	5.68143344777937	8           	110         	0           	Open  	;
 168053          	113235          	53535           	19.802851430594	6           	110         	0           	Open  	;
 169296          	111909          	52179           	3.3967050021884	8           	125         	0           	Open  	;
 170161          	112064          	52344           	3.22853879105133	4           	125         	0           	Open  	;
 171658          	52983           	112703          	29.5032408035877	3           	75          	0           	Open  	;
 172188          	112814          	53105           	23.3201179523119	3           	110         	0           	Open  	;
 172659          	52723           	112438          	10.3684932881209	16          	120         	0           	Open  	;
 173485          	52198           	111915          	2.28747290117278	8           	110         	0           	Open  	;
 173495          	112576          	52861           	27.5036028427392	12          	120         	0           	Open  	;
 173901          	112022          	52307           	4.83512085261619	8           	125         	0           	Open  	;
 174109          	111884          	52157           	23.5778887577267	6           	110         	0           	Open  	;
 174294          	112164          	52451           	10.609721009255	6           	125         	0           	Open  	;
 174340          	112227          	52509           	12.3861787116005	6           	110         	0           	Open  	;
 174548          	53509           	113213          	24.5594686316488	6           	110         	0           	Open  	;
 174604          	111890          	52166           	25.0084813216541	6           	110         	0           	Open  	;
 174676          	53385           	113085          	21.3867585359212	8           	110         	0           	Open  	;
 174829          	53074           	112783          	22.0364190896712	8           	110         	0           	Open  	;
 175202          	303421          	299166          	12.1830205471807	10          	125         	0           	Open  	;
 175473          	112427          	125998          	28.9696453502424	6           	110         	0           	Open  	;
 176128          	113115          	53426           	20.0584282457045	3           	110         	0           	Open  	;
 177197          	112980          	53282           	6.02845428653069	3           	110         	0           	Open  	;
 177579          	52685           	112400          	26.4931518626548	16          	120         	0           	Open  	;
 177679          	52895           	112615          	14.8266924948126	3           	110         	0           	Open  	;
 178318          	52350           	112064          	4.5502919693793	8           	125         	0           	Open  	;
 178673          	52160           	111879          	39.7081231221104	16          	120         	0           	Open  	;
 178851          	52392           	112110          	32.6953393917231	8           	125         	0           	Open  	;
 179839          	112251          	52534           	4.8541833436353	6           	125         	0           	Open  	;
 180099          	53282           	53277           	37.3895502814274	3           	110         	0           	Open  	;
 181243          	112817          	53112           	18.5499357238336	8           	110         	0           	Open  	;
 182760          	112285          	52575           	23.4014904084099	8           	110         	0           	Open  	;
 183161          	111884          	52160           	8.89820030405438	16          	120         	0           	Open  	;
 183593          	52174           	111890          	20.8896716369497	16          	120         	0           	Open  	;
 183889          	112736          	53030           	17.2890977414596	8           	110         	0           	Open  	;
 184240          	52830           	112558          	15.228455486276	3           	110         	0           	Open  	;
 184513          	112435          	52712           	13.8177998482725	6           	110         	0           	Open  	;
 184533          	52512           	112227          	23.8939751614765	6           	110         	0           	Open  	;
 185922          	52752           	112473          	9.45894936721555	8           	110         	0           	Open  	;
 186466          	136254          	53565           	21.3542636902955	6           	110         	0           	Open  	;
 186932          	112528          	52808           	18.5512527965188	8           	110         	0           	Open  	;
 187099          	52086           	111804          	5.39114799780097	8           	125         	0           	Open  	;
 187760          	52894           	112617          	35.6524993280641	8           	110         	0           	Open  	;
 187798          	112412          	52702           	27.7658140884412	6           	110         	0           	Open  	;
 187831          	112550          	52830           	25.6599154111575	3           	110         	0           	Open  	;
 188736          	53234           	112925          	27.6291855519369	8           	110         	0           	Open  	;
 188759          	111915          	52197           	21.1913288240721	8           	110         	0           	Open  	;
 189108          	52589           	112307          	17.0177204655016	6           	110         	0           	Open  	;
 189509          	53021           	112732          	57.1895225195202	8           	110         	0           	Open  	;
 189798          	53110           	136188          	31.4660698778243	8           	110         	0           	Open  	;
 190055          	112111          	52407           	27.0587743011513	6           	110         	0           	Open  	;
 190065          	52833           	112559          	45.6978333418559	3           	110         	0           	Open  	;
 190082          	112368          	52655           	28.080651175141	3           	110         	0           	Open  	;
 190103          	53651           	113349          	38.6176471736035	8           	110         	0           	Open  	;
 190148          	112424          	52704           	38.800941381473	3           	110         	0           	Open  	;
 190359          	112983          	53297           	31.5448570995405	3           	110         	0           	Open  	;
 190375          	111976          	111974          	8.55461755401142	16          	130         	0           	Open  	;
 191104          	112285          	52560           	18.3395304352648	12          	120         	0           	Open  	;
 191141          	53655           	113361          	32.9372368653888	8           	110         	0           	Open  	;